[General]
network = SmartSubstationTopology
sim-time-limit = 1s
ned-path = .;src;../inet4.5/src

# ==================== 网络基础配置 ====================
*.configurator.typename = "IPv4NetworkConfigurator"

# 确保所有设备都配置了IP协议栈
**.hasIpv4 = true
**.hasUdp = true
**.hasTcp = false

# ==================== TSN优先队列与门控列表 ====================
# ==================== TSN队列和GCL调度配置 ====================
# 优化策略：只在流量汇聚/竞争的端口配置GCL，避免不必要的调度开销
# 配置原则：
#   1. 核心层（TSN_A/B）：全端口配置（连接多个下级交换机和服务器，流量复杂）
#   2. 综合接入层（ACC_COMMON）：仅配置上联口eth[15]（汇聚多设备流量）
#   3. 母线保护接入层（ACC_BUS1/2/3）：不配置GCL（单一SV流量）

# 全局不启用 egress traffic shaping
*.TSN*.hasEgressTrafficShaping = false

# ==================== 1. 核心层TSN交换机（TSN_A/TSN_B）全端口配置 ====================
# 增大TSN交换机队列容量，避免在交换机处丢包（Camera已增容，TSN也需增容）
*.TSN*.eth[*].queue.packetCapacity = 5000  # 默认1000 → 5000

*.TSN_A.eth[*].macLayer.queue.numTrafficClasses = 8
*.TSN_A.eth[*].macLayer.queue.classifier.typename = "ContentBasedClassifier"
# 如果一个包匹配不到任何filter就默认放到queue0里面
*.TSN_A.eth[*].macLayer.queue.classifier.defaultGateIndex = 0   
*.TSN_A.eth[*].macLayer.queue.classifier.packetFilters = ["__Q0__", "__Q1__", "__Q2__", "OM_Data_Burst_*", "Video_Stream*", "VoIP_Stream*", "GOOSE*", "*SV*"]


*.TSN_B.eth[*].macLayer.queue.numTrafficClasses = 8
*.TSN_B.eth[*].macLayer.queue.classifier.typename = "ContentBasedClassifier"
*.TSN_B.eth[*].macLayer.queue.classifier.defaultGateIndex = 0
*.TSN_B.eth[*].macLayer.queue.classifier.packetFilters = ["__Q0__", "__Q1__", "__Q2__", "OM_Data_Burst_*", "Video_Stream*", "VoIP_Stream*", "GOOSE*", "*SV*"]

# 1.1 显式配置监控中心相关链路GCL（基于NED连接顺序端口号）
# TSN_A.eth[5] <-> MonitoringCenter_A, TSN_A.eth[6] <-> MonitoringCenter_Main
# TSN_B.eth[5] <-> MonitoringCenter_B, TSN_B.eth[6] <-> MonitoringCenter_Main
*.TSN_A.eth[5..6].macLayer.queue.transmissionGate[0].durations = []
*.TSN_A.eth[5..6].macLayer.queue.transmissionGate[1].durations = []
*.TSN_A.eth[5..6].macLayer.queue.transmissionGate[2].durations = []
*.TSN_A.eth[5..6].macLayer.queue.transmissionGate[3].offset = 400us
*.TSN_A.eth[5..6].macLayer.queue.transmissionGate[3].durations = [300us, 700us]
*.TSN_A.eth[5..6].macLayer.queue.transmissionGate[4].offset = 300us
*.TSN_A.eth[5..6].macLayer.queue.transmissionGate[4].durations = [400us, 600us]
*.TSN_A.eth[5..6].macLayer.queue.transmissionGate[5].offset = 200us
*.TSN_A.eth[5..6].macLayer.queue.transmissionGate[5].durations = [500us, 500us]
*.TSN_A.eth[5..6].macLayer.queue.transmissionGate[6].offset = 100us
*.TSN_A.eth[5..6].macLayer.queue.transmissionGate[6].durations = [700us, 300us]
*.TSN_A.eth[5..6].macLayer.queue.transmissionGate[7].offset = 0us
*.TSN_A.eth[5..6].macLayer.queue.transmissionGate[7].durations = [800us, 200us]

*.TSN_B.eth[5..6].macLayer.queue.transmissionGate[0].durations = []
*.TSN_B.eth[5..6].macLayer.queue.transmissionGate[1].durations = []
*.TSN_B.eth[5..6].macLayer.queue.transmissionGate[2].durations = []
*.TSN_B.eth[5..6].macLayer.queue.transmissionGate[3].offset = 400us
*.TSN_B.eth[5..6].macLayer.queue.transmissionGate[3].durations = [300us, 700us]
*.TSN_B.eth[5..6].macLayer.queue.transmissionGate[4].offset = 300us
*.TSN_B.eth[5..6].macLayer.queue.transmissionGate[4].durations = [400us, 600us]
*.TSN_B.eth[5..6].macLayer.queue.transmissionGate[5].offset = 200us
*.TSN_B.eth[5..6].macLayer.queue.transmissionGate[5].durations = [500us, 500us]
*.TSN_B.eth[5..6].macLayer.queue.transmissionGate[6].offset = 100us
*.TSN_B.eth[5..6].macLayer.queue.transmissionGate[6].durations = [700us, 300us]
*.TSN_B.eth[5..6].macLayer.queue.transmissionGate[7].offset = 0us
*.TSN_B.eth[5..6].macLayer.queue.transmissionGate[7].durations = [800us, 200us]

# ==================== 2. 综合接入层（ACC_COMMON）仅配置上联口eth[15] ====================
# 原因：eth[15]汇聚所有设备的上行流量（SV + Video + VoIP），存在多优先级竞争
# eth[0-14]连接单个设备（出口无流量或单一流量类型），无需GCL
*.TSN_A_ACC_COMMON.eth[15].macLayer.queue.numTrafficClasses = 8
*.TSN_A_ACC_COMMON.eth[15].macLayer.queue.classifier.typename = "ContentBasedClassifier"
*.TSN_A_ACC_COMMON.eth[15].macLayer.queue.classifier.defaultGateIndex = 0
*.TSN_A_ACC_COMMON.eth[15].macLayer.queue.classifier.packetFilters = ["__Q0__", "__Q1__", "__Q2__", "OM_Data_Burst_*", "Video_Stream*", "VoIP_Stream*", "GOOSE*", "*SV*"]
*.TSN_A_ACC_COMMON.eth[15].macLayer.queue.transmissionGate[0].durations = []
*.TSN_A_ACC_COMMON.eth[15].macLayer.queue.transmissionGate[1].durations = []
*.TSN_A_ACC_COMMON.eth[15].macLayer.queue.transmissionGate[2].durations = []
*.TSN_A_ACC_COMMON.eth[15].macLayer.queue.transmissionGate[3].offset = 400us
*.TSN_A_ACC_COMMON.eth[15].macLayer.queue.transmissionGate[3].durations = [300us, 700us]
*.TSN_A_ACC_COMMON.eth[15].macLayer.queue.transmissionGate[4].offset = 300us
*.TSN_A_ACC_COMMON.eth[15].macLayer.queue.transmissionGate[4].durations = [400us, 600us]
*.TSN_A_ACC_COMMON.eth[15].macLayer.queue.transmissionGate[5].offset = 200us
*.TSN_A_ACC_COMMON.eth[15].macLayer.queue.transmissionGate[5].durations = [500us, 500us]
*.TSN_A_ACC_COMMON.eth[15].macLayer.queue.transmissionGate[6].offset = 100us
*.TSN_A_ACC_COMMON.eth[15].macLayer.queue.transmissionGate[6].durations = [700us, 300us]
*.TSN_A_ACC_COMMON.eth[15].macLayer.queue.transmissionGate[7].offset = 0us
*.TSN_A_ACC_COMMON.eth[15].macLayer.queue.transmissionGate[7].durations = [800us, 200us]

*.TSN_B_ACC_COMMON.eth[15].macLayer.queue.numTrafficClasses = 8
*.TSN_B_ACC_COMMON.eth[15].macLayer.queue.classifier.typename = "ContentBasedClassifier"
*.TSN_B_ACC_COMMON.eth[15].macLayer.queue.classifier.defaultGateIndex = 0
*.TSN_B_ACC_COMMON.eth[15].macLayer.queue.classifier.packetFilters = ["__Q0__", "__Q1__", "__Q2__", "OM_Data_Burst_*", "Video_Stream*", "VoIP_Stream*", "GOOSE*", "*SV*"]
*.TSN_B_ACC_COMMON.eth[15].macLayer.queue.transmissionGate[0].durations = []
*.TSN_B_ACC_COMMON.eth[15].macLayer.queue.transmissionGate[1].durations = []
*.TSN_B_ACC_COMMON.eth[15].macLayer.queue.transmissionGate[2].durations = []
*.TSN_B_ACC_COMMON.eth[15].macLayer.queue.transmissionGate[3].offset = 400us
*.TSN_B_ACC_COMMON.eth[15].macLayer.queue.transmissionGate[3].durations = [300us, 700us]
*.TSN_B_ACC_COMMON.eth[15].macLayer.queue.transmissionGate[4].offset = 300us
*.TSN_B_ACC_COMMON.eth[15].macLayer.queue.transmissionGate[4].durations = [400us, 600us]
*.TSN_B_ACC_COMMON.eth[15].macLayer.queue.transmissionGate[5].offset = 200us
*.TSN_B_ACC_COMMON.eth[15].macLayer.queue.transmissionGate[5].durations = [500us, 500us]
*.TSN_B_ACC_COMMON.eth[15].macLayer.queue.transmissionGate[6].offset = 100us
*.TSN_B_ACC_COMMON.eth[15].macLayer.queue.transmissionGate[6].durations = [700us, 300us]
*.TSN_B_ACC_COMMON.eth[15].macLayer.queue.transmissionGate[7].offset = 0us
*.TSN_B_ACC_COMMON.eth[15].macLayer.queue.transmissionGate[7].durations = [800us, 200us]

# ==================== 3. 母线保护接入层（ACC_BUS1/2/3）不配置GCL ====================
# 原因：这些交换机只处理单一SV流量，所有端口的出口队列都只有queue 7，无需时间门控
# queueing相关映射：
# q7: SV / Bus_SV（最高）
# q6: GOOSE
# q5: VoIP_Stream
# q4: Video_Stream / Video_Stream_Main
# q3: OM_Data_Burst_A / OM_Data_Burst_B
# q0-q2: 默认背景流量（始终开放）

# 接口容量（10Gbps）
**.eth[*].datarate = 10Gbps
**.ppp[*].datarate = 10Gbps
*.MonitoringCenter_*.eth[*].datarate = 10Gbps  # 明确监控中心端口带宽

# Camera队列容量配置（避免大视频帧队列溢出）
*.Camera*.eth[*].queue.packetCapacity = 10000  # 默认1000 → 10000，足够容纳视频分片

# Router设备IP转发配置
*.borderGateway1.hasIpv4 = true
*.borderGateway1.forwarding = true
*.borderGateway2.hasIpv4 = true
*.borderGateway2.forwarding = true
*.otnDevice.hasIpv4 = true
*.otnDevice.forwarding = true

# 网卡配置 - 确保以太网和PPP接口正常工作
**.eth[*].typename = "EthernetInterface"
**.ppp[*].typename = "PppInterface"

# ==================== OTN路由策略（基于DSCP） ====================
# I/II区（SV/GOOSE）：DSCP=56（CS7，最高优先级）->走OTN_I_II_Channel（低延迟）
# III/IV区（背景流）：DSCP=0或40（EF）->走OTN_III_IV_Channel（混跑）
# 注：OMNeT++基础模型中，路由基于目的地址而非DSCP；实际映射可通过流量工程实现

# ==================== 基础流量配置 ====================
# 1. 甲站MU -> 甲站保护装置 (SV采样值流)
# 帧率4000帧/秒(250μs/帧)，单帧大小140B，最高优先级(7)
*.MU_A.numApps = 1
*.MU_A.app[0].typename = "src.apps.SvGeneratorApp"
*.MU_A.app[0].localDestAddress = "Protection_A"
*.MU_A.app[0].localDestPort = 2000
*.MU_A.app[0].remoteDestAddress = "Protection_B"
*.MU_A.app[0].remoteDestPort = 2001
*.MU_A.app[0].messageLength = 140B
*.MU_A.app[0].sendInterval = 250us
*.MU_A.app[0].currentBase = 100A
*.MU_A.app[0].noiseStd = 1A #例如 noiseStd = 1A，大多数样本会在 currentBase ± 3A 范围内（约99.7%）。
*.MU_A.app[0].faultEnabled = true
*.MU_A.app[0].faultStart = 2s   # 故障发生在2s时刻
*.MU_A.app[0].faultDuration = 30ms
*.MU_A.app[0].faultDelta = 200A
*.MU_A.app[0].dscp = 56  # CS7最高优先级，走I/II区低延迟专用通道
*.Protection_A.numApps = 1
*.Protection_A.app[0].typename = "src.apps.DifferentialProtectionApp"
*.Protection_A.app[0].localPort = 2000
*.Protection_A.app[0].remotePort = 2001
*.Protection_A.app[0].threshold = 1A
*.Protection_A.app[0].gooseDestLocal = "IT_A"
*.Protection_A.app[0].gooseDestRemote = "IT_B"
*.Protection_A.app[0].goosePort = 3000
*.Protection_A.app[0].gooseDscp = 48  # CS6次高优先级，为GOOSE保留
*.Protection_A.app[0].recordStats = true
*.Protection_A.app[0].strictSlotMatch = false
*.Protection_A.app[0].maxSlotLag = 1000

# 甲站智能终端接收端
*.IT_A.numApps = 1
*.IT_A.app[0].typename = "UdpSink"
*.IT_A.app[0].localPort = 3000
*.IT_A.app[0].verbose = true
*.IT_B.numApps = 1
*.IT_B.app[0].typename = "UdpSink"
*.IT_B.app[0].localPort = 3000
*.IT_B.app[0].verbose = true
*.MU_B.numApps = 1
*.MU_B.app[0].typename = "src.apps.SvGeneratorApp"
*.MU_B.app[0].localDestAddress = "Protection_B"
*.MU_B.app[0].localDestPort = 2000
*.MU_B.app[0].remoteDestAddress = "Protection_A"
*.MU_B.app[0].remoteDestPort = 2001
*.MU_B.app[0].messageLength = 140B
*.MU_B.app[0].sendInterval = 250us
*.MU_B.app[0].currentBase = 100A
*.MU_B.app[0].noiseStd = 1A
*.MU_B.app[0].faultEnabled = true
*.MU_B.app[0].faultStart = 2s
*.MU_B.app[0].faultDuration = 30ms
*.MU_B.app[0].faultDelta = 200A
*.MU_B.app[0].dscp = 56  # CS7最高优先级，走I/II区低延迟专用通道

# ==================== 母线保护配置 ====================
# 母线保护（其它背景流2）：其它相关MU向母线保护装置汇聚SV流量
# 按照SV采样值流相同参数配置：4000帧/秒，140B，最高优先级

# 甲站母线保护装置接收配置
*.BusProtection_A.numApps = 1
*.BusProtection_A.app[0].typename = "UdpSink"
*.BusProtection_A.app[0].localPort = 5000
*.BusProtection_A.app[0].verbose = true

*.Protection_B.numApps = 1
*.Protection_B.app[0].typename = "src.apps.DifferentialProtectionApp"
*.Protection_B.app[0].localPort = 2000
*.Protection_B.app[0].remotePort = 2001
*.Protection_B.app[0].threshold = 5A
*.Protection_B.app[0].gooseDestLocal = "IT_B"
*.Protection_B.app[0].gooseDestRemote = "IT_A"
*.Protection_B.app[0].goosePort = 3000
*.Protection_B.app[0].gooseDscp = 48  # CS6次高优先级，为GOOSE保留
*.Protection_B.app[0].recordStats = true
*.Protection_B.app[0].strictSlotMatch = false
*.Protection_B.app[0].maxSlotLag = 1000
*.BusProtection_MU1_A.numApps = 1
*.BusProtection_MU1_A.app[0].typename = "UdpBasicApp"
*.BusProtection_MU1_A.app[0].localPort = 5101
*.BusProtection_MU1_A.app[0].destAddresses = "BusProtection_A"
*.BusProtection_MU1_A.app[0].destPort = 5000
*.BusProtection_MU1_A.app[0].messageLength = 140B
*.BusProtection_MU1_A.app[0].sendInterval = 250us
*.BusProtection_MU1_A.app[0].startTime = 1ms
*.BusProtection_MU1_A.app[0].packetName = "Bus_SV_1"
*.BusProtection_MU1_A.app[0].dscp = 56
*.BusProtection_MU1_A.app[0].verbose = true

# 甲站间隔2 MU -> 甲站母线保护装置
*.BusProtection_MU2_A.numApps = 1
*.BusProtection_MU2_A.app[0].typename = "UdpBasicApp"
*.BusProtection_MU2_A.app[0].localPort = 5102
*.BusProtection_MU2_A.app[0].destAddresses = "BusProtection_A"
*.BusProtection_MU2_A.app[0].destPort = 5000
*.BusProtection_MU2_A.app[0].messageLength = 140B
*.BusProtection_MU2_A.app[0].sendInterval = 250us
*.BusProtection_MU2_A.app[0].startTime = 2ms
*.BusProtection_MU2_A.app[0].packetName = "Bus_SV_2"
*.BusProtection_MU2_A.app[0].dscp = 56
*.BusProtection_MU2_A.app[0].verbose = true

# 甲站间隔3 MU -> 甲站母线保护装置
*.BusProtection_MU3_A.numApps = 1
*.BusProtection_MU3_A.app[0].typename = "UdpBasicApp"
*.BusProtection_MU3_A.app[0].localPort = 5103
*.BusProtection_MU3_A.app[0].destAddresses = "BusProtection_A"
*.BusProtection_MU3_A.app[0].destPort = 5000
*.BusProtection_MU3_A.app[0].messageLength = 140B
*.BusProtection_MU3_A.app[0].sendInterval = 250us
*.BusProtection_MU3_A.app[0].startTime = 3ms
*.BusProtection_MU3_A.app[0].packetName = "Bus_SV_3"
*.BusProtection_MU3_A.app[0].dscp = 56
*.BusProtection_MU3_A.app[0].verbose = true

# 乙站母线保护装置接收配置
*.BusProtection_B.numApps = 1
*.BusProtection_B.app[0].typename = "UdpSink"
*.BusProtection_B.app[0].localPort = 5000
*.BusProtection_B.app[0].verbose = true

# 乙站间隔1 MU -> 乙站母线保护装置
*.BusProtection_MU1_B.numApps = 1
*.BusProtection_MU1_B.app[0].typename = "UdpBasicApp"
*.BusProtection_MU1_B.app[0].localPort = 5101
*.BusProtection_MU1_B.app[0].destAddresses = "BusProtection_B"
*.BusProtection_MU1_B.app[0].destPort = 5000
*.BusProtection_MU1_B.app[0].messageLength = 140B
*.BusProtection_MU1_B.app[0].sendInterval = 250us
*.BusProtection_MU1_B.app[0].startTime = 4ms
*.BusProtection_MU1_B.app[0].packetName = "Bus_SV_1"
*.BusProtection_MU1_B.app[0].dscp = 56
*.BusProtection_MU1_B.app[0].verbose = true

# 乙站间隔2 MU -> 乙站母线保护装置
*.BusProtection_MU2_B.numApps = 1
*.BusProtection_MU2_B.app[0].typename = "UdpBasicApp"
*.BusProtection_MU2_B.app[0].localPort = 5102
*.BusProtection_MU2_B.app[0].destAddresses = "BusProtection_B"
*.BusProtection_MU2_B.app[0].destPort = 5000
*.BusProtection_MU2_B.app[0].messageLength = 140B
*.BusProtection_MU2_B.app[0].sendInterval = 250us
*.BusProtection_MU2_B.app[0].startTime = 5ms
*.BusProtection_MU2_B.app[0].packetName = "Bus_SV_2"
*.BusProtection_MU2_B.app[0].dscp = 56
*.BusProtection_MU2_B.app[0].verbose = true

# 乙站间隔3 MU -> 乙站母线保护装置
*.BusProtection_MU3_B.numApps = 1
*.BusProtection_MU3_B.app[0].typename = "UdpBasicApp"
*.BusProtection_MU3_B.app[0].localPort = 5103
*.BusProtection_MU3_B.app[0].destAddresses = "BusProtection_B"
*.BusProtection_MU3_B.app[0].destPort = 5000
*.BusProtection_MU3_B.app[0].messageLength = 140B
*.BusProtection_MU3_B.app[0].sendInterval = 250us
*.BusProtection_MU3_B.app[0].startTime = 6ms
*.BusProtection_MU3_B.app[0].packetName = "Bus_SV_3"
*.BusProtection_MU3_B.app[0].dscp = 56
*.BusProtection_MU3_B.app[0].verbose = true

# ==================== 视频巡检流配置 ====================
# 10个摄像头，帧率30fps，帧长10MB（应用层分片发送）
# 发送到运维数据服务器

# 甲站摄像头1-10
*.Camera*_A.numApps = 2
*.Camera*_A.app[0].typename = "src.apps.VideoFragmentApp"
*.Camera*_A.app[0].destAddresses = "MonitoringCenter_A"
*.Camera*_A.app[0].destPort = 6000
*.Camera*_A.app[0].frameLength = 10MB
*.Camera*_A.app[0].fragmentLength = 1400B
*.Camera*_A.app[0].sendInterval = 33.33ms
*.Camera*_A.app[0].startTime = 250ms
*.Camera*_A.app[0].packetName = "Video_Stream"
*.Camera*_A.app[0].dscp = 32
*.Camera*_A.app[0].verbose = true
*.Camera*_A.app[1].typename = "src.apps.VideoFragmentApp"
*.Camera*_A.app[1].localPort = 6100
*.Camera*_A.app[1].destAddresses = "MonitoringCenter_Main"
*.Camera*_A.app[1].destPort = 6000
*.Camera*_A.app[1].frameLength = 10MB
*.Camera*_A.app[1].fragmentLength = 1400B
*.Camera*_A.app[1].sendInterval = 33.33ms
*.Camera*_A.app[1].startTime = 250ms
*.Camera*_A.app[1].packetName = "Video_Stream_Main"
*.Camera*_A.app[1].dscp = 32
*.Camera*_A.app[1].verbose = true

# 乙站摄像头1-10
*.Camera*_B.numApps = 2
*.Camera*_B.app[0].typename = "src.apps.VideoFragmentApp"
*.Camera*_B.app[0].destAddresses = "MonitoringCenter_B"
*.Camera*_B.app[0].destPort = 6000
*.Camera*_B.app[0].frameLength = 10MB
*.Camera*_B.app[0].fragmentLength = 1400B
*.Camera*_B.app[0].sendInterval = 33.33ms
*.Camera*_B.app[0].startTime = 250ms
*.Camera*_B.app[0].packetName = "Video_Stream"
*.Camera*_B.app[0].dscp = 32
*.Camera*_B.app[0].verbose = true
*.Camera*_B.app[1].typename = "src.apps.VideoFragmentApp"
*.Camera*_B.app[1].localPort = 6100
*.Camera*_B.app[1].destAddresses = "MonitoringCenter_Main"
*.Camera*_B.app[1].destPort = 6000
*.Camera*_B.app[1].frameLength = 10MB
*.Camera*_B.app[1].fragmentLength = 1400B
*.Camera*_B.app[1].sendInterval = 33.33ms
*.Camera*_B.app[1].startTime = 250ms
*.Camera*_B.app[1].packetName = "Video_Stream_Main"
*.Camera*_B.app[1].dscp = 32
*.Camera*_B.app[1].verbose = true

# 运维数据服务器接收端 app[0]: 接收视频流 app[1]: 接收运维数据流
*.MonitoringCenter_Main.numApps = 2
*.MonitoringCenter_Main.app[0].typename = "UdpSink"
*.MonitoringCenter_Main.app[0].localPort = 6000
*.MonitoringCenter_Main.app[0].verbose = true
*.MonitoringCenter_Main.app[1].typename = "UdpSink"
*.MonitoringCenter_Main.app[1].localPort = 9002
*.MonitoringCenter_Main.app[1].verbose = true

# ==================== VoIP语音流配置 ====================
# 帧率20ms，单帧200B，延迟<150ms，抖动<30ms
# 站内/站间调度电话

# 甲站VoIP1/2 -> 甲站监控中心
*.VoIP*_A.numApps = 1
*.VoIP*_A.app[0].typename = "UdpBasicApp"
*.VoIP*_A.app[0].localPort = 7001
*.VoIP*_A.app[0].destAddresses = "MonitoringCenter_A"
*.VoIP*_A.app[0].destPort = 7100
*.VoIP*_A.app[0].messageLength = 200B
*.VoIP*_A.app[0].sendInterval = 20ms
*.VoIP*_A.app[0].startTime = uniform(0s, 200ms)
*.VoIP*_A.app[0].packetName = "VoIP_Stream"
*.VoIP*_A.app[0].dscp = 40
*.VoIP*_A.app[0].verbose = true

# 乙站VoIP1/2 -> 乙站监控中心
*.VoIP*_B.numApps = 1
*.VoIP*_B.app[0].typename = "UdpBasicApp"
*.VoIP*_B.app[0].localPort = 8001
*.VoIP*_B.app[0].destAddresses = "MonitoringCenter_B"
*.VoIP*_B.app[0].destPort = 7100
*.VoIP*_B.app[0].messageLength = 200B
*.VoIP*_B.app[0].sendInterval = 20ms
*.VoIP*_B.app[0].startTime = uniform(0s, 200ms)
*.VoIP*_B.app[0].packetName = "VoIP_Stream"
*.VoIP*_B.app[0].dscp = 40
*.VoIP*_B.app[0].verbose = true
*.VoIP2_B.app[0].destPort = 7100
*.VoIP2_B.app[0].messageLength = 200B
*.VoIP2_B.app[0].sendInterval = 20ms
*.VoIP2_B.app[0].startTime = uniform(0s, 200ms)
*.VoIP2_B.app[0].packetName = "VoIP_Stream"
*.VoIP2_B.app[0].dscp = 40
*.VoIP2_B.app[0].verbose = true

# ==================== 运维数据流配置 ====================
# 传输文件、同步数据库等，突发性高
# 用随机数模拟突发流量

# 统一监控中心应用定义（相同条目集中在此，避免覆盖）
# app[0]: 接收视频流 app[1]: 发送运维数据突发流量 app[2]：接收VoIP流
*.MonitoringCenter_A.numApps = 3
*.MonitoringCenter_A.app[0].typename = "UdpSink"
*.MonitoringCenter_A.app[0].localPort = 6000
*.MonitoringCenter_A.app[0].verbose = true

*.MonitoringCenter_A.app[1].typename = "UdpBasicApp"
*.MonitoringCenter_A.app[1].localPort = 9001
*.MonitoringCenter_A.app[1].destAddresses = "MonitoringCenter_Main"
*.MonitoringCenter_A.app[1].destPort = 9002
*.MonitoringCenter_A.app[1].messageLength = int(normal(1500B, 500B))
*.MonitoringCenter_A.app[1].sendInterval = exponential(0.1s)
*.MonitoringCenter_A.app[1].startTime = 500ms      
*.MonitoringCenter_A.app[1].packetName = "OM_Data_Burst_A"
*.MonitoringCenter_A.app[1].dscp = 24
*.MonitoringCenter_A.app[1].verbose = true


*.MonitoringCenter_A.app[2].typename = "UdpSink"
*.MonitoringCenter_A.app[2].localPort = 7100
*.MonitoringCenter_A.app[2].verbose = true


# app[0]： 接收视频流 app[1]: 发送运维数据突发流量 app[2]: 接收VoIP流  
*.MonitoringCenter_B.numApps = 3
*.MonitoringCenter_B.app[0].typename = "UdpSink"
*.MonitoringCenter_B.app[0].localPort = 6000
*.MonitoringCenter_B.app[0].verbose = true

*.MonitoringCenter_B.app[1].typename = "UdpBasicApp"
*.MonitoringCenter_B.app[1].localPort = 9003
*.MonitoringCenter_B.app[1].destAddresses = "MonitoringCenter_Main"
*.MonitoringCenter_B.app[1].destPort = 9002
*.MonitoringCenter_B.app[1].messageLength = int(normal(1500B, 500B))
*.MonitoringCenter_B.app[1].sendInterval = exponential(0.1s)
*.MonitoringCenter_B.app[1].startTime = 600ms
*.MonitoringCenter_B.app[1].packetName = "OM_Data_Burst_B"
*.MonitoringCenter_B.app[1].dscp = 24
*.MonitoringCenter_B.app[1].verbose = true

*.MonitoringCenter_B.app[2].typename = "UdpSink"
*.MonitoringCenter_B.app[2].localPort = 7100
*.MonitoringCenter_B.app[2].verbose = true

# ==================== 统计配置 ====================
# 启用端到端时延统计
**.app[*].verbose = true
**.app[*].source.packetSentSignal = true
**.app[*].sink.packetReceivedSignal = true
**.app[*].sink.endToEndDelayStatistic.record = true
**.app[*].sink.delayHistogram.record = true
**.app[*].sink.numReceivedStatistic.record = true
**.app[*].sink.throughputStatistic.record = true

# 抖动统计
**.app[*].sink.jitterStatistic.record = true
**.app[*].sink.jitterHistogram.record = true

# VoIP流特殊统计
*.VoIP*_A.app[*].sink.delayThreshold = 150ms
*.VoIP*_A.app[*].sink.jitterThreshold = 30ms
*.VoIP*_B.app[*].sink.delayThreshold = 150ms
*.VoIP*_B.app[*].sink.jitterThreshold = 30ms

# SV流特殊统计
*.MU_A.app[0].sink.delayThreshold = 30ms
*.MU_A.app[0].sink.jitterThreshold = 250us
*.BusProtection_MU*_A.app[*].sink.delayThreshold = 30ms
*.BusProtection_MU*_A.app[*].sink.jitterThreshold = 250us

# ==================== 可视化配置 ====================
# 简化显示，突出关键信息
*.*_A.displayString = "i=abstract/pc"
*.*_B.displayString = "i=abstract/pc" 
*.borderGateway*.displayString = "i=misc/router"
*.otnDevice.displayString = "i=misc/router_vs"

# 关键设备特殊标记
*.MU_A.displayString = "i=block/switch,green"
*.Protection_A.displayString = "i=block/computer,red"
*.IT_A.displayString = "i=block/plug,blue"
*.Protection_B.displayString = "i=block/computer,red"
*.MonitoringCenter_A.displayString = "i=block/server,blue"
*.MonitoringCenter_B.displayString = "i=block/server,blue"
*.MonitoringCenter_Main.displayString = "i=block/server,cyan"

# 母线保护设备特殊标记
*.BusProtection_A.displayString = "i=block/computer,orange"
*.BusProtection_B.displayString = "i=block/computer,orange"
*.BusProtection_MU*_A.displayString = "i=block/switch,yellow"
*.BusProtection_MU*_B.displayString = "i=block/switch,yellow"

# 背景流量设备标记
*.Camera*_A.displayString = "i=device/camera,gray"
*.Camera*_B.displayString = "i=device/camera,gray"
*.VoIP1_A.displayString = "i=device/phone,gray"
*.VoIP2_A.displayString = "i=device/phone,gray"
*.VoIP1_B.displayString = "i=device/phone,gray"
*.VoIP2_B.displayString = "i=device/phone,gray"

# 信道显示设置
**.channel.displayString = "ls=black,1"

[Config GCLDiff-True]
extends = General
description = "A/B baseline for clear GCL effect: same traffic, shaping ON"

# 只在该配置打开门控总开关
*.TSN*.hasEgressTrafficShaping = true

# 激进GCL策略：制造明显的调度差异
# q7 (SV/GOOSE): 保持较大窗口 [300us open, 700us closed] - 30%开放
*.TSN*.eth[*].macLayer.queue.transmissionGate[7].offset = 0us
*.TSN*.eth[*].macLayer.queue.transmissionGate[7].durations = [0us, 1000us]

# q6 (GOOSE): 与SV错开
*.TSN*.eth[*].macLayer.queue.transmissionGate[6].offset = 300us
*.TSN*.eth[*].macLayer.queue.transmissionGate[6].durations = [300us, 700us]

# q5 (VoIP): 中等优先级 [200us, 800us] - 20%开放
*.TSN*.eth[*].macLayer.queue.transmissionGate[5].offset = 600us
*.TSN*.eth[*].macLayer.queue.transmissionGate[5].durations = [200us, 800us]

# q4 (Video): 极窄窗口制造明显阻塞 [50us open, 950us closed] - 仅5%开放！
*.TSN*.eth[*].macLayer.queue.transmissionGate[4].offset = 800us
*.TSN*.eth[*].macLayer.queue.transmissionGate[4].durations = [50us, 950us]

# 启用跨站video到MonitoringCenter_Main，在100ms启动产生竞争
*.Camera*_A.app[1].startTime = 100ms
*.Camera*_B.app[1].startTime = 100ms
*.MonitoringCenter_A.app[1].startTime = 500ms
*.MonitoringCenter_B.app[1].startTime = 600ms

[Config GCLDiff-False]
extends = GCLDiff-True
description = "A/B baseline for clear GCL effect: same traffic, shaping OFF"

# 与 GCLDiff-True 仅此一项不同
*.TSN*.hasEgressTrafficShaping = false

